CHEMBL32800
     RDKit          2D

 22 23  0  0  0  0  0  0  0  0999 V2000
    1.5000   -5.1962    0.0000 C   0  0  0  0  0  0  0  0  0  0  0  0
    0.7500   -3.8971    0.0000 C   0  0  0  0  0  0  0  0  0  0  0  0
    1.5000   -2.5981    0.0000 C   0  0  0  0  0  0  0  0  0  0  0  0
    0.7500   -1.2990    0.0000 C   0  0  0  0  0  0  0  0  0  0  0  0
    1.5000    0.0000    0.0000 C   0  0  0  0  0  0  0  0  0  0  0  0
    0.7500    1.2990    0.0000 C   0  0  0  0  0  0  0  0  0  0  0  0
   -0.7500    1.2990    0.0000 C   0  0  0  0  0  0  0  0  0  0  0  0
   -1.5000    2.5981    0.0000 O   0  0  0  0  0  0  0  0  0  0  0  0
   -1.5000    0.0000    0.0000 C   0  0  0  0  0  0  0  0  0  0  0  0
   -0.7500   -1.2990    0.0000 C   0  0  0  0  0  0  0  0  0  0  0  0
   -0.7500   -3.8971    0.0000 N   0  0  0  0  0  0  0  0  0  0  0  0
   -1.5000   -5.1962    0.0000 C   0  0  0  0  0  0  0  0  0  0  0  0
   -3.0000   -5.1962    0.0000 C   0  0  0  0  0  0  0  0  0  0  0  0
   -3.7500   -3.8971    0.0000 O   0  0  0  0  0  0  0  0  0  0  0  0
   -3.7500   -6.4952    0.0000 C   0  0  0  0  0  0  0  0  0  0  0  0
   -5.2500   -6.4952    0.0000 C   0  0  0  0  0  0  0  0  0  0  0  0
   -6.0000   -7.7942    0.0000 C   0  0  0  0  0  0  0  0  0  0  0  0
   -7.5000   -7.7942    0.0000 O   0  0  0  0  0  0  0  0  0  0  0  0
   -5.2500   -9.0933    0.0000 C   0  0  0  0  0  0  0  0  0  0  0  0
   -3.7500   -9.0933    0.0000 C   0  0  0  0  0  0  0  0  0  0  0  0
   -3.0000  -10.3923    0.0000 O   0  0  0  0  0  0  0  0  0  0  0  0
   -3.0000   -7.7942    0.0000 C   0  0  0  0  0  0  0  0  0  0  0  0
  1  2  1  0
  2  3  1  0
  3  4  1  0
  4  5  2  0
  5  6  1  0
  6  7  2  0
  7  8  1  0
  7  9  1  0
  9 10  2  0
  2 11  1  0
 11 12  1  0
 12 13  1  0
 13 14  1  0
 13 15  1  0
 15 16  2  0
 16 17  1  0
 17 18  1  0
 17 19  2  0
 19 20  1  0
 20 21  1  0
 20 22  2  0
 10  4  1  0
 22 15  1  0
M  END
$$$$
CHEMBL606
     RDKit          2D

 27 27  0  0  0  0  0  0  0  0999 V2000
   10.9721   -2.5981    0.0000 C   0  0  0  0  0  0  0  0  0  0  0  0
    9.6731   -1.8481    0.0000 C   0  0  0  0  0  0  0  0  0  0  0  0
    8.3741   -2.5981    0.0000 C   0  0  0  0  0  0  0  0  0  0  0  0
    7.0750   -1.8481    0.0000 C   0  0  0  0  0  0  0  0  0  0  0  0
    5.7760   -2.5981    0.0000 C   0  0  0  0  0  0  0  0  0  0  0  0
    4.4769   -3.3481    0.0000 C   0  0  0  0  0  0  0  0  0  0  0  0
    6.5260   -3.8971    0.0000 O   0  0  0  0  0  0  0  0  0  0  0  0
    5.0260   -1.2990    0.0000 C   0  0  0  0  0  0  0  0  0  0  0  0
    3.5260   -1.2990    0.0000 C   0  0  0  0  0  0  0  0  0  0  0  0
    2.7760    0.0000    0.0000 C   0  0  0  0  0  0  0  0  0  0  0  0
    1.2760    0.0000    0.0000 C   0  0  0  0  0  0  0  0  0  0  0  0
    0.3943    1.2135    0.0000 C   0  0  0  0  0  0  0  0  0  0  0  0
    0.8578    2.6401    0.0000 O   0  0  0  0  0  0  0  0  0  0  0  0
   -1.0323    0.7500    0.0000 C   0  0  0  0  0  0  0  0  0  0  0  0
   -1.0323   -0.7500    0.0000 C   0  0  0  0  0  0  0  0  0  0  0  0
   -2.2458   -1.6317    0.0000 O   0  0  0  0  0  0  0  0  0  0  0  0
    0.3943   -1.2135    0.0000 C   0  0  0  0  0  0  0  0  0  0  0  0
    0.8578   -2.6401    0.0000 C   0  0  0  0  0  0  0  0  0  0  0  0
   -0.1459   -3.7548    0.0000 C   0  0  0  0  0  0  0  0  0  0  0  0
    0.3177   -5.1814    0.0000 C   0  0  0  0  0  0  0  0  0  0  0  0
   -0.6860   -6.2961    0.0000 C   0  0  0  0  0  0  0  0  0  0  0  0
   -0.2225   -7.7227    0.0000 C   0  0  0  0  0  0  0  0  0  0  0  0
   -1.2262   -8.8374    0.0000 C   0  0  0  0  0  0  0  0  0  0  0  0
   -0.7627  -10.2640    0.0000 C   0  0  0  0  0  0  0  0  0  0  0  0
    0.7045  -10.5759    0.0000 O   0  0  0  0  0  0  0  0  0  0  0  0
   -1.7664  -11.3787    0.0000 O   0  0  0  0  0  0  0  0  0  0  0  0
   -1.3029  -12.8053    0.0000 C   0  0  0  0  0  0  0  0  0  0  0  0
  1  2  1  0
  2  3  1  0
  3  4  1  0
  4  5  1  0
  5  6  1  0
  5  7  1  0
  5  8  1  0
  8  9  1  0
  9 10  2  0
 11 10  1  6
 11 12  1  0
 12 13  1  1
 12 14  1  0
 14 15  1  0
 15 16  2  0
 15 17  1  0
 17 18  1  1
 18 19  1  0
 19 20  1  0
 20 21  1  0
 21 22  1  0
 22 23  1  0
 23 24  1  0
 24 25  2  0
 24 26  1  0
 26 27  1  0
 17 11  1  0
M  END
$$$$
CHEMBL1651
     RDKit          2D

 31 34  0  0  0  0  0  0  0  0999 V2000
   -2.2500   -9.0044    0.0000 C   0  0  0  0  0  0  0  0  0  0  0  0
   -2.2500   -7.5044    0.0000 C   0  0  0  0  0  0  0  0  0  0  0  0
   -1.0365   -6.6227    0.0000 C   0  0  0  0  0  0  0  0  0  0  0  0
   -1.5000   -5.1962    0.0000 C   0  0  0  0  0  0  0  0  0  0  0  0
   -0.7500   -3.8971    0.0000 C   0  0  0  0  0  0  0  0  0  0  0  0
    0.7500   -3.8971    0.0000 C   0  0  0  0  0  0  0  0  0  0  0  0
    1.5000   -2.5981    0.0000 C   0  0  0  0  0  0  0  0  0  0  0  0
    0.7500   -1.2990    0.0000 C   0  0  0  0  0  0  0  0  0  0  0  0
    1.5000    0.0000    0.0000 C   0  0  0  0  0  0  0  0  0  0  0  0
    0.7500    1.2990    0.0000 C   0  0  0  0  0  0  0  0  0  0  0  0
    1.5000    2.5981    0.0000 O   0  0  0  0  0  0  0  0  0  0  0  0
   -0.7500    1.2990    0.0000 C   0  0  0  0  0  0  0  0  0  0  0  0
   -1.5000    0.0000    0.0000 C   0  0  0  0  0  0  0  0  0  0  0  0
   -0.7500   -1.2990    0.0000 C   0  0  0  0  0  0  0  0  0  0  0  0
   -2.2500   -1.2990    0.0000 C   0  0  0  0  0  0  0  0  0  0  0  0
   -1.5000   -2.5981    0.0000 C   0  0  0  0  0  0  0  0  0  0  0  0
   -2.2500   -3.8971    0.0000 F   0  0  0  0  0  0  0  0  0  0  0  0
   -3.0000   -2.5981    0.0000 C   0  0  0  0  0  0  0  0  0  0  0  0
   -3.7500   -1.2990    0.0000 O   0  0  0  0  0  0  0  0  0  0  0  0
   -3.7500   -3.8971    0.0000 C   0  0  0  0  0  0  0  0  0  0  0  0
   -3.0000   -5.1962    0.0000 C   0  0  0  0  0  0  0  0  0  0  0  0
   -4.4854   -4.9873    0.0000 C   0  0  0  0  0  0  0  0  0  0  0  0
   -3.4635   -6.6227    0.0000 C   0  0  0  0  0  0  0  0  0  0  0  0
   -4.8338   -6.0126    0.0000 O   0  0  0  0  0  0  0  0  0  0  0  0
   -6.0474   -6.8943    0.0000 C   0  0  0  0  0  0  0  0  0  0  0  0
   -6.1584   -7.6837    0.0000 O   0  0  0  0  0  0  0  0  0  0  0  0
   -7.4177   -6.2842    0.0000 C   0  0  0  0  0  0  0  0  0  0  0  0
   -4.2135   -7.9218    0.0000 C   0  0  0  0  0  0  0  0  0  0  0  0
   -3.4635   -9.2208    0.0000 O   0  0  0  0  0  0  0  0  0  0  0  0
   -5.7135   -7.9218    0.0000 C   0  0  0  0  0  0  0  0  0  0  0  0
   -6.4635   -9.2208    0.0000 O   0  0  0  0  0  0  0  0  0  0  0  0
  2  1  1  1
  2  3  1  0
  4  3  1  6
  4  5  1  0
  5  6  1  1
  6  7  1  0
  7  8  1  0
  8  9  2  0
  9 10  1  0
 10 11  2  0
 10 12  1  0
 12 13  2  0
 13 14  1  0
 14 15  1  6
 14 16  1  0
 16 17  1  1
 16 18  1  0
 18 19  1  6
 18 20  1  0
 20 21  1  0
 21 22  1  6
 21 23  1  0
 23 24  1  1
 24 25  1  0
 25 26  2  0
 25 27  1  0
 23 28  1  0
 28 29  2  0
 28 30  1  0
 30 31  1  0
 23  2  1  0
 21  4  1  0
 16  5  1  0
 14  8  1  0
M  END
$$$$
CHEMBL1648
     RDKit          2D

 27 29  0  0  0  0  0  0  0  0999 V2000
   -1.9679   -3.6517    0.0000 C   0  0  0  0  0  0  0  0  0  0  0  0
   -3.0826   -2.6480    0.0000 O   0  0  0  0  0  0  0  0  0  0  0  0
   -2.7707   -1.1807    0.0000 C   0  0  0  0  0  0  0  0  0  0  0  0
   -1.8872   -1.1190    0.0000 O   0  0  0  0  0  0  0  0  0  0  0  0
   -3.8855   -0.1771    0.0000 C   0  0  0  0  0  0  0  0  0  0  0  0
   -5.3120   -0.6406    0.0000 C   0  0  0  0  0  0  0  0  0  0  0  0
   -5.6239   -2.1078    0.0000 C   0  0  0  0  0  0  0  0  0  0  0  0
   -6.4268    0.3631    0.0000 N   0  0  0  0  0  0  0  0  0  0  0  0
   -6.1149    1.8303    0.0000 C   0  0  0  0  0  0  0  0  0  0  0  0
   -4.6883    2.2939    0.0000 C   0  0  0  0  0  0  0  0  0  0  0  0
   -3.5736    1.2902    0.0000 C   0  0  0  0  0  0  0  0  0  0  0  0
   -2.1470    1.7537    0.0000 C   0  0  0  0  0  0  0  0  0  0  0  0
   -1.8351    3.2209    0.0000 C   0  0  0  0  0  0  0  0  0  0  0  0
   -0.4086    3.6844    0.0000 C   0  0  0  0  0  0  0  0  0  0  0  0
    0.7062    2.6807    0.0000 C   0  0  0  0  0  0  0  0  0  0  0  0
    0.3943    1.2135    0.0000 C   0  0  0  0  0  0  0  0  0  0  0  0
    1.2760    0.0000    0.0000 N   0  0  0  0  0  0  0  0  0  0  0  0
    0.3943   -1.2135    0.0000 O   0  0  0  0  0  0  0  0  0  0  0  0
   -1.0323   -0.7500    0.0000 N   0  0  0  0  0  0  0  0  0  0  0  0
   -1.0323    0.7500    0.0000 C   0  0  0  0  0  0  0  0  0  0  0  0
   -4.3764    3.7611    0.0000 C   0  0  0  0  0  0  0  0  0  0  0  0
   -2.9499    4.2246    0.0000 O   0  0  0  0  0  0  0  0  0  0  0  0
   -5.4912    4.7648    0.0000 O   0  0  0  0  0  0  0  0  0  0  0  0
   -5.1793    6.2320    0.0000 C   0  0  0  0  0  0  0  0  0  0  0  0
   -6.2940    7.2357    0.0000 C   0  0  0  0  0  0  0  0  0  0  0  0
   -3.7527    6.6955    0.0000 C   0  0  0  0  0  0  0  0  0  0  0  0
   -7.2296    2.8340    0.0000 C   0  0  0  0  0  0  0  0  0  0  0  0
  1  2  1  0
  2  3  1  0
  3  4  2  0
  3  5  1  0
  5  6  2  0
  6  7  1  0
  6  8  1  0
  8  9  1  0
  9 10  2  0
 10 11  1  0
 11 12  1  0
 12 13  2  0
 13 14  1  0
 14 15  2  0
 15 16  1  0
 16 17  2  0
 17 18  1  0
 18 19  1  0
 19 20  2  0
 10 21  1  0
 21 22  2  0
 21 23  1  0
 23 24  1  0
 24 25  1  0
 24 26  1  0
  9 27  1  0
 11  5  1  0
 20 12  1  0
 20 16  1  0
M  END
$$$$
5280965
  -OEChem-01202405152D

138140  0     1  0  0  0  0  0999 V2000
   16.3933    1.7500    0.0000 O   0  0  0  0  0  0  0  0  0  0  0  0
   16.3933    3.7500    0.0000 O   0  0  0  0  0  0  0  0  0  0  0  0
   18.9914    3.2500    0.0000 O   0  0  0  0  0  0  0  0  0  0  0  0
   16.3933   -1.2500    0.0000 O   0  0  0  0  0  0  0  0  0  0  0  0
   18.1254   -1.2500    0.0000 O   0  0  0  0  0  0  0  0  0  0  0  0
   14.6613    1.7500    0.0000 O   0  0  0  0  0  0  0  0  0  0  0  0
   19.8574    1.7500    0.0000 O   0  0  0  0  0  0  0  0  0  0  0  0
   18.9914    0.2500    0.0000 O   0  0  0  0  0  0  0  0  0  0  0  0
   12.9292    1.7500    0.0000 O   0  0  0  0  0  0  0  0  0  0  0  0
   16.3933   -3.2500    0.0000 O   0  0  0  0  0  0  0  0  0  0  0  0
   19.8574   -3.2500    0.0000 O   0  0  0  0  0  0  0  0  0  0  0  0
   12.0632    4.2500    0.0000 O   0  0  0  0  0  0  0  0  0  0  0  0
    9.4651    1.7500    0.0000 O   0  0  0  0  0  0  0  0  0  0  0  0
    7.7331    1.7500    0.0000 O   0  0  0  0  0  0  0  0  0  0  0  0
    5.1350    3.2500    0.0000 O   0  0  0  0  0  0  0  0  0  0  0  0
    2.5369    1.7500    0.0000 O   0  0  0  0  0  0  0  0  0  0  0  0
    6.0010    1.7500    0.0000 O   0  0  0  0  0  0  0  0  0  0  0  0
   18.1254   -4.2500    0.0000 N   0  0  0  0  0  0  0  0  0  0  0  0
   16.3933    2.7500    0.0000 C   0  0  1  0  0  0  0  0  0  0  0  0
   17.2594    1.2500    0.0000 C   0  0  2  0  0  0  0  0  0  0  0  0
   18.1254    1.7500    0.0000 C   0  0  1  0  0  0  0  0  0  0  0  0
   18.1254    2.7500    0.0000 C   0  0  2  0  0  0  0  0  0  0  0  0
   17.2594    3.2500    0.0000 C   0  0  0  0  0  0  0  0  0  0  0  0
   15.5273    3.2500    0.0000 C   0  0  0  0  0  0  0  0  0  0  0  0
   17.2594    0.2500    0.0000 C   0  0  0  0  0  0  0  0  0  0  0  0
   14.6613    2.7500    0.0000 C   0  0  2  0  0  0  0  0  0  0  0  0
   16.3933   -0.2500    0.0000 C   0  0  2  0  0  0  0  0  0  0  0  0
   18.9914    1.2500    0.0000 C   0  0  0  0  0  0  0  0  0  0  0  0
   13.7953    3.2500    0.0000 C   0  0  0  0  0  0  0  0  0  0  0  0
   17.2594   -1.7500    0.0000 C   0  0  2  0  0  0  0  0  0  0  0  0
   12.9292    2.7500    0.0000 C   0  0  2  0  0  0  0  0  0  0  0  0
   17.2594   -2.7500    0.0000 C   0  0  2  0  0  0  0  0  0  0  0  0
   18.1254   -3.2500    0.0000 C   0  0  2  0  0  0  0  0  0  0  0  0
   18.9914   -2.7500    0.0000 C   0  0  1  0  0  0  0  0  0  0  0  0
   18.9914   -1.7500    0.0000 C   0  0  1  0  0  0  0  0  0  0  0  0
   12.0632    3.2500    0.0000 C   0  0  1  0  0  0  0  0  0  0  0  0
   15.5273    0.2500    0.0000 C   0  0  0  0  0  0  0  0  0  0  0  0
   11.1972    2.7500    0.0000 C   0  0  0  0  0  0  0  0  0  0  0  0
   19.8574   -1.2500    0.0000 C   0  0  0  0  0  0  0  0  0  0  0  0
   10.3312    3.2500    0.0000 C   0  0  0  0  0  0  0  0  0  0  0  0
   14.6613   -0.2500    0.0000 C   0  0  0  0  0  0  0  0  0  0  0  0
    9.4651    2.7500    0.0000 C   0  0  2  0  0  0  0  0  0  0  0  0
    8.5991    3.2500    0.0000 C   0  0  0  0  0  0  0  0  0  0  0  0
    7.7331    2.7500    0.0000 C   0  0  2  0  0  0  0  0  0  0  0  0
   13.7953    0.2500    0.0000 C   0  0  0  0  0  0  0  0  0  0  0  0
    6.8671    3.2500    0.0000 C   0  0  0  0  0  0  0  0  0  0  0  0
    4.2690    1.7500    0.0000 C   0  0  2  0  0  0  0  0  0  0  0  0
    3.4030    1.2500    0.0000 C   0  0  1  0  0  0  0  0  0  0  0  0
    4.2690    2.7500    0.0000 C   0  0  2  0  0  0  0  0  0  0  0  0
    3.4030    0.2500    0.0000 C   0  0  1  0  0  0  0  0  0  0  0  0
   12.9292   -0.2500    0.0000 C   0  0  0  0  0  0  0  0  0  0  0  0
    6.0010    2.7500    0.0000 C   0  0  0  0  0  0  0  0  0  0  0  0
    5.1350    1.2500    0.0000 C   0  0  0  0  0  0  0  0  0  0  0  0
    3.4030    3.2500    0.0000 C   0  0  0  0  0  0  0  0  0  0  0  0
    2.5369   -0.2500    0.0000 C   0  0  0  0  0  0  0  0  0  0  0  0
    4.2690   -0.2500    0.0000 C   0  0  0  0  0  0  0  0  0  0  0  0
   12.0632    0.2500    0.0000 C   0  0  0  0  0  0  0  0  0  0  0  0
    5.1350    0.2500    0.0000 C   0  0  0  0  0  0  0  0  0  0  0  0
   11.1972   -0.2500    0.0000 C   0  0  0  0  0  0  0  0  0  0  0  0
    6.0010   -0.2500    0.0000 C   0  0  0  0  0  0  0  0  0  0  0  0
   10.3312    0.2500    0.0000 C   0  0  0  0  0  0  0  0  0  0  0  0
    6.8671    0.2500    0.0000 C   0  0  0  0  0  0  0  0  0  0  0  0
    9.4651   -0.2500    0.0000 C   0  0  0  0  0  0  0  0  0  0  0  0
    7.7331   -0.2500    0.0000 C   0  0  0  0  0  0  0  0  0  0  0  0
    8.5991    0.2500    0.0000 C   0  0  0  0  0  0  0  0  0  0  0  0
   16.5232    0.8250    0.0000 H   0  0  0  0  0  0  0  0  0  0  0  0
   18.1254    1.1300    0.0000 H   0  0  0  0  0  0  0  0  0  0  0  0
   18.1254    3.3700    0.0000 H   0  0  0  0  0  0  0  0  0  0  0  0
   17.6579    3.7250    0.0000 H   0  0  0  0  0  0  0  0  0  0  0  0
   16.8608    3.7250    0.0000 H   0  0  0  0  0  0  0  0  0  0  0  0
   15.9258    3.7250    0.0000 H   0  0  0  0  0  0  0  0  0  0  0  0
   15.1288    3.7250    0.0000 H   0  0  0  0  0  0  0  0  0  0  0  0
   17.4714   -0.3326    0.0000 H   0  0  0  0  0  0  0  0  0  0  0  0
   17.8699    0.3577    0.0000 H   0  0  0  0  0  0  0  0  0  0  0  0
   15.1982    2.4400    0.0000 H   0  0  0  0  0  0  0  0  0  0  0  0
   16.9303   -0.5600    0.0000 H   0  0  0  0  0  0  0  0  0  0  0  0
   14.1938    3.7250    0.0000 H   0  0  0  0  0  0  0  0  0  0  0  0
   13.3967    3.7250    0.0000 H   0  0  0  0  0  0  0  0  0  0  0  0
   16.9303    4.0600    0.0000 H   0  0  0  0  0  0  0  0  0  0  0  0
   17.2594   -1.1300    0.0000 H   0  0  0  0  0  0  0  0  0  0  0  0
   18.9914    3.8700    0.0000 H   0  0  0  0  0  0  0  0  0  0  0  0
   13.4662    2.4400    0.0000 H   0  0  0  0  0  0  0  0  0  0  0  0
   17.2594   -3.3700    0.0000 H   0  0  0  0  0  0  0  0  0  0  0  0
   18.6623   -3.5600    0.0000 H   0  0  0  0  0  0  0  0  0  0  0  0
   19.5284   -2.4400    0.0000 H   0  0  0  0  0  0  0  0  0  0  0  0
   18.9914   -1.1300    0.0000 H   0  0  0  0  0  0  0  0  0  0  0  0
   12.6001    3.5600    0.0000 H   0  0  0  0  0  0  0  0  0  0  0  0
   15.5273    0.8700    0.0000 H   0  0  0  0  0  0  0  0  0  0  0  0
   14.1244    1.4400    0.0000 H   0  0  0  0  0  0  0  0  0  0  0  0
   10.7987    2.2750    0.0000 H   0  0  0  0  0  0  0  0  0  0  0  0
   11.5957    2.2750    0.0000 H   0  0  0  0  0  0  0  0  0  0  0  0
   20.3944    1.4400    0.0000 H   0  0  0  0  0  0  0  0  0  0  0  0
   20.1674   -1.7869    0.0000 H   0  0  0  0  0  0  0  0  0  0  0  0
   20.3944   -0.9400    0.0000 H   0  0  0  0  0  0  0  0  0  0  0  0
   19.5474   -0.7131    0.0000 H   0  0  0  0  0  0  0  0  0  0  0  0
   10.7297    3.7250    0.0000 H   0  0  0  0  0  0  0  0  0  0  0  0
    9.9326    3.7250    0.0000 H   0  0  0  0  0  0  0  0  0  0  0  0
   18.6623   -4.5600    0.0000 H   0  0  0  0  0  0  0  0  0  0  0  0
   17.5885   -4.5600    0.0000 H   0  0  0  0  0  0  0  0  0  0  0  0
   12.3923    1.4400    0.0000 H   0  0  0  0  0  0  0  0  0  0  0  0
   16.3933   -3.8700    0.0000 H   0  0  0  0  0  0  0  0  0  0  0  0
   14.6613   -0.8700    0.0000 H   0  0  0  0  0  0  0  0  0  0  0  0
   10.0021    2.4400    0.0000 H   0  0  0  0  0  0  0  0  0  0  0  0
   20.3944   -2.9400    0.0000 H   0  0  0  0  0  0  0  0  0  0  0  0
   11.5263    4.5600    0.0000 H   0  0  0  0  0  0  0  0  0  0  0  0
    8.9976    3.7250    0.0000 H   0  0  0  0  0  0  0  0  0  0  0  0
    8.2006    3.7250    0.0000 H   0  0  0  0  0  0  0  0  0  0  0  0
    7.1962    2.4400    0.0000 H   0  0  0  0  0  0  0  0  0  0  0  0
   13.7953    0.8700    0.0000 H   0  0  0  0  0  0  0  0  0  0  0  0
    4.2690    1.1300    0.0000 H   0  0  0  0  0  0  0  0  0  0  0  0
    7.2656    3.7250    0.0000 H   0  0  0  0  0  0  0  0  0  0  0  0
    6.4685    3.7250    0.0000 H   0  0  0  0  0  0  0  0  0  0  0  0
   10.0021    1.4400    0.0000 H   0  0  0  0  0  0  0  0  0  0  0  0
    3.4030    1.8700    0.0000 H   0  0  0  0  0  0  0  0  0  0  0  0
    4.2690    3.3700    0.0000 H   0  0  0  0  0  0  0  0  0  0  0  0
    2.8660    0.5600    0.0000 H   0  0  0  0  0  0  0  0  0  0  0  0
   12.9292   -0.8700    0.0000 H   0  0  0  0  0  0  0  0  0  0  0  0
    4.8250    0.7131    0.0000 H   0  0  0  0  0  0  0  0  0  0  0  0
    5.6720    0.9400    0.0000 H   0  0  0  0  0  0  0  0  0  0  0  0
    5.4450    1.7869    0.0000 H   0  0  0  0  0  0  0  0  0  0  0  0
    8.2700    1.4400    0.0000 H   0  0  0  0  0  0  0  0  0  0  0  0
    3.7130    3.7869    0.0000 H   0  0  0  0  0  0  0  0  0  0  0  0
    2.8660    3.5600    0.0000 H   0  0  0  0  0  0  0  0  0  0  0  0
    3.0930    2.7131    0.0000 H   0  0  0  0  0  0  0  0  0  0  0  0
    2.2269    0.2869    0.0000 H   0  0  0  0  0  0  0  0  0  0  0  0
    2.0000   -0.5600    0.0000 H   0  0  0  0  0  0  0  0  0  0  0  0
    2.8469   -0.7869    0.0000 H   0  0  0  0  0  0  0  0  0  0  0  0
    4.2690   -0.8700    0.0000 H   0  0  0  0  0  0  0  0  0  0  0  0
    2.0000    1.4400    0.0000 H   0  0  0  0  0  0  0  0  0  0  0  0
   12.0632    0.8700    0.0000 H   0  0  0  0  0  0  0  0  0  0  0  0
    5.1350    0.8700    0.0000 H   0  0  0  0  0  0  0  0  0  0  0  0
   11.1972   -0.8700    0.0000 H   0  0  0  0  0  0  0  0  0  0  0  0
    6.0010   -0.8700    0.0000 H   0  0  0  0  0  0  0  0  0  0  0  0
   10.3312    0.8700    0.0000 H   0  0  0  0  0  0  0  0  0  0  0  0
    6.8671    0.8700    0.0000 H   0  0  0  0  0  0  0  0  0  0  0  0
    9.4651   -0.8700    0.0000 H   0  0  0  0  0  0  0  0  0  0  0  0
    7.7331   -0.8700    0.0000 H   0  0  0  0  0  0  0  0  0  0  0  0
    8.5991    0.8700    0.0000 H   0  0  0  0  0  0  0  0  0  0  0  0
  1 19  1  0  0  0  0
  1 20  1  0  0  0  0
 19  2  1  1  0  0  0
  2 79  1  0  0  0  0
 22  3  1  6  0  0  0
  3 81  1  0  0  0  0
 27  4  1  1  0  0  0
 30  4  1  6  0  0  0
  5 30  1  0  0  0  0
  5 35  1  0  0  0  0
 26  6  1  1  0  0  0
  6 89  1  0  0  0  0
  7 28  1  0  0  0  0
  7 92  1  0  0  0  0
  8 28  2  0  0  0  0
 31  9  1  1  0  0  0
  9100  1  0  0  0  0
 32 10  1  6  0  0  0
 10101  1  0  0  0  0
 34 11  1  1  0  0  0
 11104  1  0  0  0  0
 36 12  1  1  0  0  0
 12105  1  0  0  0  0
 42 13  1  1  0  0  0
 13113  1  0  0  0  0
 44 14  1  1  0  0  0
 14121  1  0  0  0  0
 15 49  1  0  0  0  0
 15 52  1  0  0  0  0
 48 16  1  1  0  0  0
 16129  1  0  0  0  0
 17 52  2  0  0  0  0
 33 18  1  6  0  0  0
 18 98  1  0  0  0  0
 18 99  1  0  0  0  0
 19 23  1  0  0  0  0
 19 24  1  0  0  0  0
 20 21  1  0  0  0  0
 20 25  1  0  0  0  0
 20 66  1  1  0  0  0
 21 22  1  0  0  0  0
 21 28  1  1  0  0  0
 21 67  1  0  0  0  0
 22 23  1  0  0  0  0
 22 68  1  0  0  0  0
 23 69  1  0  0  0  0
 23 70  1  0  0  0  0
 24 26  1  0  0  0  0
 24 71  1  0  0  0  0
 24 72  1  0  0  0  0
 25 27  1  0  0  0  0
 25 73  1  0  0  0  0
 25 74  1  0  0  0  0
 26 29  1  0  0  0  0
 26 75  1  0  0  0  0
 27 37  1  0  0  0  0
 27 76  1  0  0  0  0
 29 31  1  0  0  0  0
 29 77  1  0  0  0  0
 29 78  1  0  0  0  0
 30 32  1  0  0  0  0
 30 80  1  0  0  0  0
 31 36  1  0  0  0  0
 31 82  1  0  0  0  0
 32 33  1  0  0  0  0
 32 83  1  0  0  0  0
 33 34  1  0  0  0  0
 33 84  1  0  0  0  0
 34 35  1  0  0  0  0
 34 85  1  0  0  0  0
 35 39  1  6  0  0  0
 35 86  1  0  0  0  0
 36 38  1  0  0  0  0
 36 87  1  0  0  0  0
 37 41  2  0  0  0  0
 37 88  1  0  0  0  0
 38 40  1  0  0  0  0
 38 90  1  0  0  0  0
 38 91  1  0  0  0  0
 39 93  1  0  0  0  0
 39 94  1  0  0  0  0
 39 95  1  0  0  0  0
 40 42  1  0  0  0  0
 40 96  1  0  0  0  0
 40 97  1  0  0  0  0
 41 45  1  0  0  0  0
 41102  1  0  0  0  0
 42 43  1  0  0  0  0
 42103  1  0  0  0  0
 43 44  1  0  0  0  0
 43106  1  0  0  0  0
 43107  1  0  0  0  0
 44 46  1  0  0  0  0
 44108  1  0  0  0  0
 45 51  2  0  0  0  0
 45109  1  0  0  0  0
 46 52  1  0  0  0  0
 46111  1  0  0  0  0
 46112  1  0  0  0  0
 47 48  1  0  0  0  0
 47 49  1  0  0  0  0
 47 53  1  6  0  0  0
 47110  1  0  0  0  0
 48 50  1  0  0  0  0
 48114  1  0  0  0  0
 49 54  1  6  0  0  0
 49115  1  0  0  0  0
 50 55  1  6  0  0  0
 50 56  1  0  0  0  0
 50116  1  0  0  0  0
 51 57  1  0  0  0  0
 51117  1  0  0  0  0
 53118  1  0  0  0  0
 53119  1  0  0  0  0
 53120  1  0  0  0  0
 54122  1  0  0  0  0
 54123  1  0  0  0  0
 54124  1  0  0  0  0
 55125  1  0  0  0  0
 55126  1  0  0  0  0
 55127  1  0  0  0  0
 56 58  2  0  0  0  0
 56128  1  0  0  0  0
 57 59  2  0  0  0  0
 57130  1  0  0  0  0
 58 60  1  0  0  0  0
 58131  1  0  0  0  0
 59 61  1  0  0  0  0
 59132  1  0  0  0  0
 60 62  2  0  0  0  0
 60133  1  0  0  0  0
 61 63  2  0  0  0  0
 61134  1  0  0  0  0
 62 64  1  0  0  0  0
 62135  1  0  0  0  0
 63 65  1  0  0  0  0
 63136  1  0  0  0  0
 64 65  2  0  0  0  0
 64137  1  0  0  0  0
 65138  1  0  0  0  0
M  END
$$$$
445643
  -OEChem-01202405142D

126129  0     1  0  0  0  0  0999 V2000
    7.6897   -2.9934    0.0000 O   0  0  0  0  0  0  0  0  0  0  0  0
    6.4627   -4.4461    0.0000 O   0  0  0  0  0  0  0  0  0  0  0  0
    5.3150   -3.7595    0.0000 O   0  0  0  0  0  0  0  0  0  0  0  0
    7.6897   -1.9934    0.0000 O   0  0  0  0  0  0  0  0  0  0  0  0
    7.3895   -0.6097    0.0000 O   0  0  0  0  0  0  0  0  0  0  0  0
   10.2349    4.7171    0.0000 O   0  0  0  0  0  0  0  0  0  0  0  0
   10.2124   -3.6057    0.0000 O   0  0  0  0  0  0  0  0  0  0  0  0
   11.9670    3.7171    0.0000 O   0  0  0  0  0  0  0  0  0  0  0  0
   10.9671   -2.3111    0.0000 O   0  0  0  0  0  0  0  0  0  0  0  0
    7.2608    2.5659    0.0000 O   0  0  0  0  0  0  0  0  0  0  0  0
    9.1216   -1.6096    0.0000 O   0  0  0  0  0  0  0  0  0  0  0  0
    4.1434    3.0457    0.0000 O   0  0  0  0  0  0  0  0  0  0  0  0
    9.9876   -1.1097    0.0000 N   0  0  0  0  0  0  0  0  0  0  0  0
    6.8237   -2.4934    0.0000 C   0  0  1  0  0  0  0  0  0  0  0  0
    8.5675   -3.5091    0.0000 C   0  0  2  0  0  0  0  0  0  0  0  0
    6.8120   -3.5091    0.0000 C   0  0  2  0  0  0  0  0  0  0  0  0
    7.6897   -4.0204    0.0000 C   0  0  0  0  0  0  0  0  0  0  0  0
    8.5558   -2.4934    0.0000 C   0  0  2  0  0  0  0  0  0  0  0  0
    5.9577   -2.9934    0.0000 C   0  0  2  0  0  0  0  0  0  0  0  0
    5.0916   -2.4934    0.0000 C   0  0  0  0  0  0  0  0  0  0  0  0
    5.0916   -1.4934    0.0000 C   0  0  2  0  0  0  0  0  0  0  0  0
    8.9168   -4.4462    0.0000 C   0  0  0  0  0  0  0  0  0  0  0  0
    9.3689    2.2171    0.0000 C   0  0  1  0  0  0  0  0  0  0  0  0
    9.4218   -2.9934    0.0000 C   0  0  0  0  0  0  0  0  0  0  0  0
    9.3689    3.2171    0.0000 C   0  0  0  0  0  0  0  0  0  0  0  0
   10.2349    1.7171    0.0000 C   0  0  0  0  0  0  0  0  0  0  0  0
   10.2349    3.7171    0.0000 C   0  0  2  0  0  0  0  0  0  0  0  0
   11.1009    3.2171    0.0000 C   0  0  1  0  0  0  0  0  0  0  0  0
   11.1009    2.2171    0.0000 C   0  0  0  0  0  0  0  0  0  0  0  0
    9.1216   -0.6097    0.0000 C   0  0  1  0  0  0  0  0  0  0  0  0
    4.2256   -0.9934    0.0000 C   0  0  0  0  0  0  0  0  0  0  0  0
    9.9876   -2.1097    0.0000 C   0  0  0  0  0  0  0  0  0  0  0  0
    7.3895    0.3903    0.0000 C   0  0  1  0  0  0  0  0  0  0  0  0
    9.1216    0.3903    0.0000 C   0  0  0  0  0  0  0  0  0  0  0  0
   10.8536   -0.6097    0.0000 C   0  0  0  0  0  0  0  0  0  0  0  0
    8.5029    1.7171    0.0000 C   0  0  0  0  0  0  0  0  0  0  0  0
    6.5235    0.8903    0.0000 C   0  0  1  0  0  0  0  0  0  0  0  0
    9.9876    0.8903    0.0000 C   0  0  0  0  0  0  0  0  0  0  0  0
   10.8536    0.3903    0.0000 C   0  0  0  0  0  0  0  0  0  0  0  0
    8.3292    0.7323    0.0000 C   0  0  0  0  0  0  0  0  0  0  0  0
    5.9577   -0.9934    0.0000 C   0  0  0  0  0  0  0  0  0  0  0  0
    6.5235    1.8903    0.0000 C   0  0  2  0  0  0  0  0  0  0  0  0
    8.2556   -1.1097    0.0000 C   0  0  0  0  0  0  0  0  0  0  0  0
    4.2256    0.0066    0.0000 C   0  0  0  0  0  0  0  0  0  0  0  0
    7.0996   -5.2171    0.0000 C   0  0  0  0  0  0  0  0  0  0  0  0
    4.3301   -3.5858    0.0000 C   0  0  0  0  0  0  0  0  0  0  0  0
    5.8164    2.5974    0.0000 C   0  0  0  0  0  0  0  0  0  0  0  0
    6.5235   -0.1097    0.0000 C   0  0  0  0  0  0  0  0  0  0  0  0
    4.5916    1.3727    0.0000 C   0  0  2  0  0  0  0  0  0  0  0  0
    9.2102   -0.0069    0.0000 C   0  0  0  0  0  0  0  0  0  0  0  0
    5.0916    0.5066    0.0000 C   0  0  0  0  0  0  0  0  0  0  0  0
    4.8505    2.3386    0.0000 C   0  0  0  0  0  0  0  0  0  0  0  0
    3.3596    0.5066    0.0000 C   0  0  0  0  0  0  0  0  0  0  0  0
    3.6002    1.2421    0.0000 C   0  0  0  0  0  0  0  0  0  0  0  0
   11.1009    5.2171    0.0000 C   0  0  0  0  0  0  0  0  0  0  0  0
    2.9914    2.0355    0.0000 C   0  0  0  0  0  0  0  0  0  0  0  0
    2.0000    1.9050    0.0000 C   0  0  0  0  0  0  0  0  0  0  0  0
    6.4030   -1.7548    0.0000 H   0  0  0  0  0  0  0  0  0  0  0  0
    9.1770   -3.3956    0.0000 H   0  0  0  0  0  0  0  0  0  0  0  0
    6.2024   -3.3956    0.0000 H   0  0  0  0  0  0  0  0  0  0  0  0
    7.2906   -4.4949    0.0000 H   0  0  0  0  0  0  0  0  0  0  0  0
    8.0889   -4.4949    0.0000 H   0  0  0  0  0  0  0  0  0  0  0  0
    6.3562   -3.4683    0.0000 H   0  0  0  0  0  0  0  0  0  0  0  0
    4.4811   -2.3857    0.0000 H   0  0  0  0  0  0  0  0  0  0  0  0
    4.8796   -3.0760    0.0000 H   0  0  0  0  0  0  0  0  0  0  0  0
    5.0916   -0.8734    0.0000 H   0  0  0  0  0  0  0  0  0  0  0  0
    8.3358   -4.6627    0.0000 H   0  0  0  0  0  0  0  0  0  0  0  0
    9.1333   -5.0271    0.0000 H   0  0  0  0  0  0  0  0  0  0  0  0
    9.4977   -4.2296    0.0000 H   0  0  0  0  0  0  0  0  0  0  0  0
    9.3689    1.5971    0.0000 H   0  0  0  0  0  0  0  0  0  0  0  0
    9.1568    3.7997    0.0000 H   0  0  0  0  0  0  0  0  0  0  0  0
    8.7583    3.1095    0.0000 H   0  0  0  0  0  0  0  0  0  0  0  0
    9.8364    1.2422    0.0000 H   0  0  0  0  0  0  0  0  0  0  0  0
   10.6334    1.2422    0.0000 H   0  0  0  0  0  0  0  0  0  0  0  0
    9.6980    4.0271    0.0000 H   0  0  0  0  0  0  0  0  0  0  0  0
   11.6379    2.9071    0.0000 H   0  0  0  0  0  0  0  0  0  0  0  0
   11.3130    1.6345    0.0000 H   0  0  0  0  0  0  0  0  0  0  0  0
   11.7115    2.3248    0.0000 H   0  0  0  0  0  0  0  0  0  0  0  0
    8.3855   -0.1847    0.0000 H   0  0  0  0  0  0  0  0  0  0  0  0
    3.6150   -0.8857    0.0000 H   0  0  0  0  0  0  0  0  0  0  0  0
    4.0136   -1.5760    0.0000 H   0  0  0  0  0  0  0  0  0  0  0  0
    7.8974    0.0347    0.0000 H   0  0  0  0  0  0  0  0  0  0  0  0
    8.9095    0.9729    0.0000 H   0  0  0  0  0  0  0  0  0  0  0  0
    8.5110    0.2826    0.0000 H   0  0  0  0  0  0  0  0  0  0  0  0
    7.6897   -1.3734    0.0000 H   0  0  0  0  0  0  0  0  0  0  0  0
   11.0657   -1.1923    0.0000 H   0  0  0  0  0  0  0  0  0  0  0  0
   11.4642   -0.5020    0.0000 H   0  0  0  0  0  0  0  0  0  0  0  0
    8.0279    2.1157    0.0000 H   0  0  0  0  0  0  0  0  0  0  0  0
    5.9035    0.8903    0.0000 H   0  0  0  0  0  0  0  0  0  0  0  0
   10.3861    1.3652    0.0000 H   0  0  0  0  0  0  0  0  0  0  0  0
    9.5891    1.3652    0.0000 H   0  0  0  0  0  0  0  0  0  0  0  0
   11.4642    0.2826    0.0000 H   0  0  0  0  0  0  0  0  0  0  0  0
   11.0657    0.9729    0.0000 H   0  0  0  0  0  0  0  0  0  0  0  0
    6.2677   -1.5303    0.0000 H   0  0  0  0  0  0  0  0  0  0  0  0
    6.4946   -0.6834    0.0000 H   0  0  0  0  0  0  0  0  0  0  0  0
    5.6477   -0.4564    0.0000 H   0  0  0  0  0  0  0  0  0  0  0  0
    7.0910    1.6406    0.0000 H   0  0  0  0  0  0  0  0  0  0  0  0
    6.6216   -5.6120    0.0000 H   0  0  0  0  0  0  0  0  0  0  0  0
    7.4945   -5.6951    0.0000 H   0  0  0  0  0  0  0  0  0  0  0  0
    7.5776   -4.8223    0.0000 H   0  0  0  0  0  0  0  0  0  0  0  0
    6.3243    2.9530    0.0000 H   0  0  0  0  0  0  0  0  0  0  0  0
    5.5544    3.1593    0.0000 H   0  0  0  0  0  0  0  0  0  0  0  0
    4.4378   -2.9752    0.0000 H   0  0  0  0  0  0  0  0  0  0  0  0
    3.7195   -3.4781    0.0000 H   0  0  0  0  0  0  0  0  0  0  0  0
    4.2224   -4.1964    0.0000 H   0  0  0  0  0  0  0  0  0  0  0  0
    5.9035   -0.1097    0.0000 H   0  0  0  0  0  0  0  0  0  0  0  0
    6.5235   -0.7297    0.0000 H   0  0  0  0  0  0  0  0  0  0  0  0
    7.1435   -0.1097    0.0000 H   0  0  0  0  0  0  0  0  0  0  0  0
    4.1829    1.8388    0.0000 H   0  0  0  0  0  0  0  0  0  0  0  0
    8.8116   -0.4818    0.0000 H   0  0  0  0  0  0  0  0  0  0  0  0
    9.6851   -0.4054    0.0000 H   0  0  0  0  0  0  0  0  0  0  0  0
    9.6087    0.4681    0.0000 H   0  0  0  0  0  0  0  0  0  0  0  0
    5.5301    0.0682    0.0000 H   0  0  0  0  0  0  0  0  0  0  0  0
   12.5039    3.4071    0.0000 H   0  0  0  0  0  0  0  0  0  0  0  0
    3.6696    1.0436    0.0000 H   0  0  0  0  0  0  0  0  0  0  0  0
    2.8227    0.8166    0.0000 H   0  0  0  0  0  0  0  0  0  0  0  0
    3.0496   -0.0303    0.0000 H   0  0  0  0  0  0  0  0  0  0  0  0
    3.0503    0.9559    0.0000 H   0  0  0  0  0  0  0  0  0  0  0  0
    3.7866    0.6508    0.0000 H   0  0  0  0  0  0  0  0  0  0  0  0
   11.4109    4.6802    0.0000 H   0  0  0  0  0  0  0  0  0  0  0  0
   11.6379    5.5271    0.0000 H   0  0  0  0  0  0  0  0  0  0  0  0
   10.7909    5.7541    0.0000 H   0  0  0  0  0  0  0  0  0  0  0  0
    7.1266    3.1712    0.0000 H   0  0  0  0  0  0  0  0  0  0  0  0
    3.2287    2.6083    0.0000 H   0  0  0  0  0  0  0  0  0  0  0  0
    1.6226    2.3968    0.0000 H   0  0  0  0  0  0  0  0  0  0  0  0
    1.7627    1.3322    0.0000 H   0  0  0  0  0  0  0  0  0  0  0  0
  1 14  1  0  0  0  0
  1 18  1  0  0  0  0
 16  2  1  6  0  0  0
  2 45  1  0  0  0  0
 19  3  1  1  0  0  0
  3 46  1  0  0  0  0
 18  4  1  6  0  0  0
  4 85  1  0  0  0  0
  5 33  1  0  0  0  0
  5 43  1  0  0  0  0
 27  6  1  1  0  0  0
  6 55  1  0  0  0  0
  7 24  2  0  0  0  0
 28  8  1  6  0  0  0
  8114  1  0  0  0  0
  9 32  2  0  0  0  0
 42 10  1  6  0  0  0
 10123  1  0  0  0  0
 11 43  2  0  0  0  0
 12 52  2  0  0  0  0
 13 30  1  0  0  0  0
 13 32  1  0  0  0  0
 13 35  1  0  0  0  0
 14 16  1  0  0  0  0
 14 19  1  0  0  0  0
 14 58  1  6  0  0  0
 15 17  1  0  0  0  0
 15 18  1  0  0  0  0
 15 22  1  6  0  0  0
 15 59  1  0  0  0  0
 16 17  1  0  0  0  0
 16 60  1  0  0  0  0
 17 61  1  0  0  0  0
 17 62  1  0  0  0  0
 18 24  1  0  0  0  0
 19 20  1  0  0  0  0
 19 63  1  0  0  0  0
 20 21  1  0  0  0  0
 20 64  1  0  0  0  0
 20 65  1  0  0  0  0
 21 31  1  0  0  0  0
 21 41  1  6  0  0  0
 21 66  1  0  0  0  0
 22 67  1  0  0  0  0
 22 68  1  0  0  0  0
 22 69  1  0  0  0  0
 23 25  1  0  0  0  0
 23 26  1  0  0  0  0
 23 36  1  1  0  0  0
 23 70  1  0  0  0  0
 24 32  1  0  0  0  0
 25 27  1  0  0  0  0
 25 71  1  0  0  0  0
 25 72  1  0  0  0  0
 26 29  1  0  0  0  0
 26 73  1  0  0  0  0
 26 74  1  0  0  0  0
 27 28  1  0  0  0  0
 27 75  1  0  0  0  0
 28 29  1  0  0  0  0
 28 76  1  0  0  0  0
 29 77  1  0  0  0  0
 29 78  1  0  0  0  0
 30 34  1  0  0  0  0
 30 43  1  0  0  0  0
 30 79  1  1  0  0  0
 31 44  1  0  0  0  0
 31 80  1  0  0  0  0
 31 81  1  0  0  0  0
 33 37  1  0  0  0  0
 33 40  1  1  0  0  0
 33 82  1  0  0  0  0
 34 38  1  0  0  0  0
 34 83  1  0  0  0  0
 34 84  1  0  0  0  0
 35 39  1  0  0  0  0
 35 86  1  0  0  0  0
 35 87  1  0  0  0  0
 36 40  2  0  0  0  0
 36 88  1  0  0  0  0
 37 42  1  0  0  0  0
 37 48  1  6  0  0  0
 37 89  1  0  0  0  0
 38 39  1  0  0  0  0
 38 90  1  0  0  0  0
 38 91  1  0  0  0  0
 39 92  1  0  0  0  0
 39 93  1  0  0  0  0
 40 50  1  0  0  0  0
 41 94  1  0  0  0  0
 41 95  1  0  0  0  0
 41 96  1  0  0  0  0
 42 47  1  0  0  0  0
 42 97  1  0  0  0  0
 44 51  2  0  0  0  0
 44 53  1  0  0  0  0
 45 98  1  0  0  0  0
 45 99  1  0  0  0  0
 45100  1  0  0  0  0
 46103  1  0  0  0  0
 46104  1  0  0  0  0
 46105  1  0  0  0  0
 47 52  1  0  0  0  0
 47101  1  0  0  0  0
 47102  1  0  0  0  0
 48106  1  0  0  0  0
 48107  1  0  0  0  0
 48108  1  0  0  0  0
 49 51  1  0  0  0  0
 49 52  1  0  0  0  0
 49 54  1  1  0  0  0
 49109  1  0  0  0  0
 50110  1  0  0  0  0
 50111  1  0  0  0  0
 50112  1  0  0  0  0
 51113  1  0  0  0  0
 53115  1  0  0  0  0
 53116  1  0  0  0  0
 53117  1  0  0  0  0
 54 56  1  0  0  0  0
 54118  1  0  0  0  0
 54119  1  0  0  0  0
 55120  1  0  0  0  0
 55121  1  0  0  0  0
 55122  1  0  0  0  0
 56 57  2  0  0  0  0
 56124  1  0  0  0  0
 57125  1  0  0  0  0
 57126  1  0  0  0  0
M  END
$$$$
5284373
  -OEChem-01202405142D

196196  0     1  0  0  0  0  0999 V2000
    9.1236   -5.6277    0.0000 O   0  0  0  0  0  0  0  0  0  0  0  0
   10.7372   -4.9728    0.0000 O   0  0  0  0  0  0  0  0  0  0  0  0
   13.8725   -3.3565    0.0000 O   0  0  0  0  0  0  0  0  0  0  0  0
   15.6361   -0.3017    0.0000 O   0  0  0  0  0  0  0  0  0  0  0  0
    7.2259   -4.6375    0.0000 O   0  0  0  0  0  0  0  0  0  0  0  0
   15.4683    3.2216    0.0000 O   0  0  0  0  0  0  0  0  0  0  0  0
    6.6840    6.7383    0.0000 O   0  0  0  0  0  0  0  0  0  0  0  0
    4.4532   -2.4571    0.0000 O   0  0  0  0  0  0  0  0  0  0  0  0
    4.1312    4.3042    0.0000 O   0  0  0  0  0  0  0  0  0  0  0  0
   10.1476    7.4058    0.0000 O   0  0  0  0  0  0  0  0  0  0  0  0
    3.2996    0.8763    0.0000 O   0  0  0  0  0  0  0  0  0  0  0  0
   13.4222    6.0949    0.0000 O   0  0  0  0  0  0  0  0  0  0  0  0
   12.3963   -3.2509    0.0000 N   0  0  0  0  0  0  0  0  0  0  0  0
    9.5525   -4.0859    0.0000 N   0  0  0  0  0  0  0  0  0  0  0  0
   14.3372   -1.0110    0.0000 N   0  0  0  0  0  0  0  0  0  0  0  0
   14.7590    1.9227    0.0000 N   0  0  0  0  0  0  0  0  0  0  0  0
    6.7087   -3.2509    0.0000 N   0  0  0  0  0  0  0  0  0  0  0  0
    8.0706    6.2211    0.0000 N   0  0  0  0  0  0  0  0  0  0  0  0
    5.5772    4.6187    0.0000 N   0  0  0  0  0  0  0  0  0  0  0  0
    4.3460    1.9227    0.0000 N   0  0  0  0  0  0  0  0  0  0  0  0
    4.7678   -1.0110    0.0000 N   0  0  0  0  0  0  0  0  0  0  0  0
   13.5278    4.6187    0.0000 N   0  0  0  0  0  0  0  0  0  0  0  0
   11.0344    6.2211    0.0000 N   0  0  0  0  0  0  0  0  0  0  0  0
   11.5075   -3.7091    0.0000 C   0  0  1  0  0  0  0  0  0  0  0  0
   13.8372   -1.8770    0.0000 C   0  0  1  0  0  0  0  0  0  0  0  0
    8.5570   -3.9909    0.0000 C   0  0  1  0  0  0  0  0  0  0  0  0
   11.8791   -4.6375    0.0000 C   0  0  0  0  0  0  0  0  0  0  0  0
    8.3678   -4.9728    0.0000 C   0  0  1  0  0  0  0  0  0  0  0  0
   14.6518   -2.4571    0.0000 C   0  0  0  0  0  0  0  0  0  0  0  0
    7.7129   -5.7285    0.0000 C   0  0  1  0  0  0  0  0  0  0  0  0
   10.5480   -3.9909    0.0000 C   0  0  0  0  0  0  0  0  0  0  0  0
   13.1824   -2.6328    0.0000 C   0  0  0  0  0  0  0  0  0  0  0  0
   14.8066    0.9238    0.0000 C   0  0  2  0  0  0  0  0  0  0  0  0
   15.6473   -2.5521    0.0000 C   0  0  0  0  0  0  0  0  0  0  0  0
   14.6643   -0.0660    0.0000 C   0  0  0  0  0  0  0  0  0  0  0  0
   15.8055    0.8763    0.0000 C   0  0  0  0  0  0  0  0  0  0  0  0
    7.5976   -3.7091    0.0000 C   0  0  0  0  0  0  0  0  0  0  0  0
    8.0400   -6.6736    0.0000 C   0  0  0  0  0  0  0  0  0  0  0  0
   12.8690   -4.7798    0.0000 C   0  0  0  0  0  0  0  0  0  0  0  0
   11.2610   -5.4236    0.0000 C   0  0  0  0  0  0  0  0  0  0  0  0
   16.6943    1.3345    0.0000 C   0  0  0  0  0  0  0  0  0  0  0  0
   12.9370   -4.0922    0.0000 C   0  0  0  0  0  0  0  0  0  0  0  0
    6.7310   -5.5393    0.0000 C   0  0  0  0  0  0  0  0  0  0  0  0
    9.5525   -5.0859    0.0000 C   0  0  0  0  0  0  0  0  0  0  0  0
   15.2469   -1.4264    0.0000 C   0  0  0  0  0  0  0  0  0  0  0  0
   16.0627   -3.4618    0.0000 C   0  0  0  0  0  0  0  0  0  0  0  0
   16.2273   -1.7375    0.0000 C   0  0  0  0  0  0  0  0  0  0  0  0
    5.9227   -2.6328    0.0000 C   0  0  1  0  0  0  0  0  0  0  0  0
    6.3010    5.3088    0.0000 C   0  0  1  0  0  0  0  0  0  0  0  0
   14.5233    2.8945    0.0000 C   0  0  0  0  0  0  0  0  0  0  0  0
    9.0525    6.4104    0.0000 C   0  0  1  0  0  0  0  0  0  0  0  0
   17.5356    0.7938    0.0000 C   0  0  0  0  0  0  0  0  0  0  0  0
   16.7419    2.3334    0.0000 C   0  0  0  0  0  0  0  0  0  0  0  0
    4.5818    2.8945    0.0000 C   0  0  1  0  0  0  0  0  0  0  0  0
    7.3851   -7.4293    0.0000 C   0  0  0  0  0  0  0  0  0  0  0  0
   15.7489    2.0650    0.0000 C   0  0  0  0  0  0  0  0  0  0  0  0
    5.6828    6.0949    0.0000 C   0  0  0  0  0  0  0  0  0  0  0  0
    8.9575    7.4058    0.0000 C   0  0  0  0  0  0  0  0  0  0  0  0
   14.1079    3.8042    0.0000 C   0  0  1  0  0  0  0  0  0  0  0  0
    3.6368    3.2216    0.0000 C   0  0  0  0  0  0  0  0  0  0  0  0
    5.2326   -3.3565    0.0000 C   0  0  0  0  0  0  0  0  0  0  0  0
    7.1422    5.8494    0.0000 C   0  0  0  0  0  0  0  0  0  0  0  0
    9.3729    8.3155    0.0000 C   0  0  0  0  0  0  0  0  0  0  0  0
    5.2678   -1.8770    0.0000 C   0  0  0  0  0  0  0  0  0  0  0  0
    2.6548    3.0324    0.0000 C   0  0  0  0  0  0  0  0  0  0  0  0
    4.9972    3.8042    0.0000 C   0  0  0  0  0  0  0  0  0  0  0  0
   10.0525    6.4104    0.0000 C   0  0  0  0  0  0  0  0  0  0  0  0
    4.4407   -0.0660    0.0000 C   0  0  0  0  0  0  0  0  0  0  0  0
    4.6930    5.9525    0.0000 C   0  0  0  0  0  0  0  0  0  0  0  0
    6.0545    7.0232    0.0000 C   0  0  0  0  0  0  0  0  0  0  0  0
    4.2984    0.9238    0.0000 C   0  0  0  0  0  0  0  0  0  0  0  0
   11.9628    5.8494    0.0000 C   0  0  2  0  0  0  0  0  0  0  0  0
   14.9739    4.3042    0.0000 C   0  0  0  0  0  0  0  0  0  0  0  0
    7.7122   -8.3743    0.0000 C   0  0  0  0  0  0  0  0  0  0  0  0
    7.7889    7.1806    0.0000 C   0  0  0  0  0  0  0  0  0  0  0  0
    5.5143   -4.3160    0.0000 C   0  0  0  0  0  0  0  0  0  0  0  0
    8.7928    9.1300    0.0000 C   0  0  0  0  0  0  0  0  0  0  0  0
   10.3684    8.4105    0.0000 C   0  0  0  0  0  0  0  0  0  0  0  0
   12.8041    5.3088    0.0000 C   0  0  0  0  0  0  0  0  0  0  0  0
    2.0000    3.7882    0.0000 C   0  0  0  0  0  0  0  0  0  0  0  0
    2.3278    2.0873    0.0000 C   0  0  0  0  0  0  0  0  0  0  0  0
    3.3562    2.0650    0.0000 C   0  0  0  0  0  0  0  0  0  0  0  0
    3.8582   -1.4264    0.0000 C   0  0  0  0  0  0  0  0  0  0  0  0
   12.4210    6.7383    0.0000 C   0  0  0  0  0  0  0  0  0  0  0  0
    7.0573   -9.1300    0.0000 C   0  0  0  0  0  0  0  0  0  0  0  0
   12.0884   -3.9258    0.0000 H   0  0  0  0  0  0  0  0  0  0  0  0
   14.4431   -1.7452    0.0000 H   0  0  0  0  0  0  0  0  0  0  0  0
    9.0664   -4.6713    0.0000 H   0  0  0  0  0  0  0  0  0  0  0  0
   11.2655   -4.5493    0.0000 H   0  0  0  0  0  0  0  0  0  0  0  0
    8.9537   -4.7700    0.0000 H   0  0  0  0  0  0  0  0  0  0  0  0
   14.1411   -2.8086    0.0000 H   0  0  0  0  0  0  0  0  0  0  0  0
   14.8685   -1.8762    0.0000 H   0  0  0  0  0  0  0  0  0  0  0  0
    7.5101   -5.1426    0.0000 H   0  0  0  0  0  0  0  0  0  0  0  0
   15.2450    1.3622    0.0000 H   0  0  0  0  0  0  0  0  0  0  0  0
   15.2876   -3.0572    0.0000 H   0  0  0  0  0  0  0  0  0  0  0  0
   15.5660    0.3044    0.0000 H   0  0  0  0  0  0  0  0  0  0  0  0
   15.6737    1.4821    0.0000 H   0  0  0  0  0  0  0  0  0  0  0  0
    8.4310   -7.1548    0.0000 H   0  0  0  0  0  0  0  0  0  0  0  0
    8.5818   -6.3721    0.0000 H   0  0  0  0  0  0  0  0  0  0  0  0
   12.7807   -5.3935    0.0000 H   0  0  0  0  0  0  0  0  0  0  0  0
   13.4827   -4.8680    0.0000 H   0  0  0  0  0  0  0  0  0  0  0  0
   12.9572   -4.1661    0.0000 H   0  0  0  0  0  0  0  0  0  0  0  0
   10.7736   -5.0403    0.0000 H   0  0  0  0  0  0  0  0  0  0  0  0
   10.8777   -5.9109    0.0000 H   0  0  0  0  0  0  0  0  0  0  0  0
   11.7483   -5.8068    0.0000 H   0  0  0  0  0  0  0  0  0  0  0  0
   17.2454    1.6186    0.0000 H   0  0  0  0  0  0  0  0  0  0  0  0
   12.4154   -4.4274    0.0000 H   0  0  0  0  0  0  0  0  0  0  0  0
   13.2722   -4.6137    0.0000 H   0  0  0  0  0  0  0  0  0  0  0  0
   13.4585   -3.7570    0.0000 H   0  0  0  0  0  0  0  0  0  0  0  0
    6.8483   -4.9305    0.0000 H   0  0  0  0  0  0  0  0  0  0  0  0
    6.1222   -5.4220    0.0000 H   0  0  0  0  0  0  0  0  0  0  0  0
    6.6137   -6.1481    0.0000 H   0  0  0  0  0  0  0  0  0  0  0  0
    8.9325   -5.0859    0.0000 H   0  0  0  0  0  0  0  0  0  0  0  0
    9.5525   -5.7059    0.0000 H   0  0  0  0  0  0  0  0  0  0  0  0
   10.1725   -5.0859    0.0000 H   0  0  0  0  0  0  0  0  0  0  0  0
   14.9893   -1.9904    0.0000 H   0  0  0  0  0  0  0  0  0  0  0  0
   15.8108   -1.6840    0.0000 H   0  0  0  0  0  0  0  0  0  0  0  0
   15.5044   -0.8624    0.0000 H   0  0  0  0  0  0  0  0  0  0  0  0
   15.4987   -3.7193    0.0000 H   0  0  0  0  0  0  0  0  0  0  0  0
   16.3203   -4.0257    0.0000 H   0  0  0  0  0  0  0  0  0  0  0  0
   16.6267   -3.2042    0.0000 H   0  0  0  0  0  0  0  0  0  0  0  0
   16.7324   -2.0972    0.0000 H   0  0  0  0  0  0  0  0  0  0  0  0
   16.5870   -1.2325    0.0000 H   0  0  0  0  0  0  0  0  0  0  0  0
   15.7223   -1.3779    0.0000 H   0  0  0  0  0  0  0  0  0  0  0  0
    6.3735   -3.7725    0.0000 H   0  0  0  0  0  0  0  0  0  0  0  0
    5.9669   -3.2512    0.0000 H   0  0  0  0  0  0  0  0  0  0  0  0
    9.0062   -6.2364    0.0000 H   0  0  0  0  0  0  0  0  0  0  0  0
    5.6826    5.3530    0.0000 H   0  0  0  0  0  0  0  0  0  0  0  0
    8.5562    6.7819    0.0000 H   0  0  0  0  0  0  0  0  0  0  0  0
    4.0376    2.5974    0.0000 H   0  0  0  0  0  0  0  0  0  0  0  0
   17.2004    0.2723    0.0000 H   0  0  0  0  0  0  0  0  0  0  0  0
   18.0572    0.4587    0.0000 H   0  0  0  0  0  0  0  0  0  0  0  0
   17.8708    1.3154    0.0000 H   0  0  0  0  0  0  0  0  0  0  0  0
   17.3612    2.3039    0.0000 H   0  0  0  0  0  0  0  0  0  0  0  0
   16.7714    2.9527    0.0000 H   0  0  0  0  0  0  0  0  0  0  0  0
   16.1226    2.3629    0.0000 H   0  0  0  0  0  0  0  0  0  0  0  0
    6.7763   -7.3119    0.0000 H   0  0  0  0  0  0  0  0  0  0  0  0
   15.8371    1.4513    0.0000 H   0  0  0  0  0  0  0  0  0  0  0  0
   16.3625    2.1533    0.0000 H   0  0  0  0  0  0  0  0  0  0  0  0
   15.6606    2.6787    0.0000 H   0  0  0  0  0  0  0  0  0  0  0  0
    5.2996    6.5822    0.0000 H   0  0  0  0  0  0  0  0  0  0  0  0
    8.5156    7.8408    0.0000 H   0  0  0  0  0  0  0  0  0  0  0  0
    9.5689    7.3030    0.0000 H   0  0  0  0  0  0  0  0  0  0  0  0
   14.2397    4.4100    0.0000 H   0  0  0  0  0  0  0  0  0  0  0  0
    4.0277    3.7028    0.0000 H   0  0  0  0  0  0  0  0  0  0  0  0
    3.5925    2.6032    0.0000 H   0  0  0  0  0  0  0  0  0  0  0  0
    4.8650   -2.8572    0.0000 H   0  0  0  0  0  0  0  0  0  0  0  0
    4.6771   -3.6318    0.0000 H   0  0  0  0  0  0  0  0  0  0  0  0
    8.7557    8.2565    0.0000 H   0  0  0  0  0  0  0  0  0  0  0  0
    2.0460    2.9150    0.0000 H   0  0  0  0  0  0  0  0  0  0  0  0
    5.1087    5.0248    0.0000 H   0  0  0  0  0  0  0  0  0  0  0  0
    3.8517    0.1275    0.0000 H   0  0  0  0  0  0  0  0  0  0  0  0
    5.0433    0.0802    0.0000 H   0  0  0  0  0  0  0  0  0  0  0  0
   13.9964    5.0248    0.0000 H   0  0  0  0  0  0  0  0  0  0  0  0
    4.6048    6.5662    0.0000 H   0  0  0  0  0  0  0  0  0  0  0  0
    4.0793    5.8643    0.0000 H   0  0  0  0  0  0  0  0  0  0  0  0
    4.7812    5.3389    0.0000 H   0  0  0  0  0  0  0  0  0  0  0  0
    6.6301    6.7928    0.0000 H   0  0  0  0  0  0  0  0  0  0  0  0
    6.2849    7.5988    0.0000 H   0  0  0  0  0  0  0  0  0  0  0  0
    5.4789    7.2537    0.0000 H   0  0  0  0  0  0  0  0  0  0  0  0
   11.7461    6.4304    0.0000 H   0  0  0  0  0  0  0  0  0  0  0  0
   15.2839    3.7672    0.0000 H   0  0  0  0  0  0  0  0  0  0  0  0
   15.5108    4.6142    0.0000 H   0  0  0  0  0  0  0  0  0  0  0  0
   14.6639    4.8411    0.0000 H   0  0  0  0  0  0  0  0  0  0  0  0
    8.3210   -8.4916    0.0000 H   0  0  0  0  0  0  0  0  0  0  0  0
    8.3837    7.3553    0.0000 H   0  0  0  0  0  0  0  0  0  0  0  0
    7.6142    7.7755    0.0000 H   0  0  0  0  0  0  0  0  0  0  0  0
    7.1940    7.0059    0.0000 H   0  0  0  0  0  0  0  0  0  0  0  0
    4.9194   -4.4906    0.0000 H   0  0  0  0  0  0  0  0  0  0  0  0
    5.6890   -4.9109    0.0000 H   0  0  0  0  0  0  0  0  0  0  0  0
    6.1092   -4.1413    0.0000 H   0  0  0  0  0  0  0  0  0  0  0  0
   11.2091    6.8160    0.0000 H   0  0  0  0  0  0  0  0  0  0  0  0
    9.2979    9.4897    0.0000 H   0  0  0  0  0  0  0  0  0  0  0  0
    8.4332    9.6351    0.0000 H   0  0  0  0  0  0  0  0  0  0  0  0
    8.2878    8.7704    0.0000 H   0  0  0  0  0  0  0  0  0  0  0  0
   10.4273    7.7933    0.0000 H   0  0  0  0  0  0  0  0  0  0  0  0
   10.9855    8.4695    0.0000 H   0  0  0  0  0  0  0  0  0  0  0  0
   10.3094    9.0277    0.0000 H   0  0  0  0  0  0  0  0  0  0  0  0
    2.4686    4.1941    0.0000 H   0  0  0  0  0  0  0  0  0  0  0  0
    1.5940    4.2568    0.0000 H   0  0  0  0  0  0  0  0  0  0  0  0
    1.5314    3.3822    0.0000 H   0  0  0  0  0  0  0  0  0  0  0  0
    1.7419    2.2900    0.0000 H   0  0  0  0  0  0  0  0  0  0  0  0
    2.1251    1.5014    0.0000 H   0  0  0  0  0  0  0  0  0  0  0  0
    2.9137    1.8846    0.0000 H   0  0  0  0  0  0  0  0  0  0  0  0
    3.4444    2.6787    0.0000 H   0  0  0  0  0  0  0  0  0  0  0  0
    2.7425    2.1533    0.0000 H   0  0  0  0  0  0  0  0  0  0  0  0
    3.2680    1.4513    0.0000 H   0  0  0  0  0  0  0  0  0  0  0  0
    3.6006   -0.8624    0.0000 H   0  0  0  0  0  0  0  0  0  0  0  0
    3.2942   -1.6840    0.0000 H   0  0  0  0  0  0  0  0  0  0  0  0
    4.1157   -1.9904    0.0000 H   0  0  0  0  0  0  0  0  0  0  0  0
   12.9721    6.4542    0.0000 H   0  0  0  0  0  0  0  0  0  0  0  0
   12.7051    7.2894    0.0000 H   0  0  0  0  0  0  0  0  0  0  0  0
   11.8700    7.0224    0.0000 H   0  0  0  0  0  0  0  0  0  0  0  0
    6.5888   -8.7240    0.0000 H   0  0  0  0  0  0  0  0  0  0  0  0
    6.6513   -9.5986    0.0000 H   0  0  0  0  0  0  0  0  0  0  0  0
    7.5259   -9.5361    0.0000 H   0  0  0  0  0  0  0  0  0  0  0  0
 28  1  1  6  0  0  0
  1127  1  0  0  0  0
  2 31  2  0  0  0  0
  3 32  2  0  0  0  0
  4 35  2  0  0  0  0
  5 37  2  0  0  0  0
  6 50  2  0  0  0  0
  7 62  2  0  0  0  0
  8 64  2  0  0  0  0
  9 66  2  0  0  0  0
 10 67  2  0  0  0  0
 11 71  2  0  0  0  0
 12 79  2  0  0  0  0
 13 24  1  0  0  0  0
 13 32  1  0  0  0  0
 13 42  1  0  0  0  0
 14 26  1  0  0  0  0
 14 31  1  0  0  0  0
 14 44  1  0  0  0  0
 15 25  1  0  0  0  0
 15 35  1  0  0  0  0
 15 45  1  0  0  0  0
 16 33  1  0  0  0  0
 16 50  1  0  0  0  0
 16 56  1  0  0  0  0
 17 37  1  0  0  0  0
 17 48  1  0  0  0  0
 17125  1  0  0  0  0
 18 51  1  0  0  0  0
 18 62  1  0  0  0  0
 18 75  1  0  0  0  0
 19 49  1  0  0  0  0
 19 66  1  0  0  0  0
 19151  1  0  0  0  0
 20 54  1  0  0  0  0
 20 71  1  0  0  0  0
 20 82  1  0  0  0  0
 21 64  1  0  0  0  0
 21 68  1  0  0  0  0
 21 83  1  0  0  0  0
 22 59  1  0  0  0  0
 22 79  1  0  0  0  0
 22154  1  0  0  0  0
 23 67  1  0  0  0  0
 23 72  1  0  0  0  0
 23172  1  0  0  0  0
 24 27  1  1  0  0  0
 24 31  1  0  0  0  0
 24 86  1  0  0  0  0
 25 29  1  1  0  0  0
 25 32  1  0  0  0  0
 25 87  1  0  0  0  0
 26 28  1  0  0  0  0
 26 37  1  0  0  0  0
 26 88  1  6  0  0  0
 27 39  1  0  0  0  0
 27 40  1  0  0  0  0
 27 89  1  0  0  0  0
 28 30  1  0  0  0  0
 28 90  1  0  0  0  0
 29 34  1  0  0  0  0
 29 91  1  0  0  0  0
 29 92  1  0  0  0  0
 30 38  1  0  0  0  0
 30 43  1  1  0  0  0
 30 93  1  0  0  0  0
 33 35  1  0  0  0  0
 33 36  1  1  0  0  0
 33 94  1  0  0  0  0
 34 46  1  0  0  0  0
 34 47  1  0  0  0  0
 34 95  1  0  0  0  0
 36 41  1  0  0  0  0
 36 96  1  0  0  0  0
 36 97  1  0  0  0  0
 38 55  1  0  0  0  0
 38 98  1  0  0  0  0
 38 99  1  0  0  0  0
 39100  1  0  0  0  0
 39101  1  0  0  0  0
 39102  1  0  0  0  0
 40103  1  0  0  0  0
 40104  1  0  0  0  0
 40105  1  0  0  0  0
 41 52  1  0  0  0  0
 41 53  1  0  0  0  0
 41106  1  0  0  0  0
 42107  1  0  0  0  0
 42108  1  0  0  0  0
 42109  1  0  0  0  0
 43110  1  0  0  0  0
 43111  1  0  0  0  0
 43112  1  0  0  0  0
 44113  1  0  0  0  0
 44114  1  0  0  0  0
 44115  1  0  0  0  0
 45116  1  0  0  0  0
 45117  1  0  0  0  0
 45118  1  0  0  0  0
 46119  1  0  0  0  0
 46120  1  0  0  0  0
 46121  1  0  0  0  0
 47122  1  0  0  0  0
 47123  1  0  0  0  0
 47124  1  0  0  0  0
 48 61  1  1  0  0  0
 48 64  1  0  0  0  0
 48126  1  0  0  0  0
 49 57  1  1  0  0  0
 49 62  1  0  0  0  0
 49128  1  0  0  0  0
 50 59  1  0  0  0  0
 51 58  1  1  0  0  0
 51 67  1  0  0  0  0
 51129  1  0  0  0  0
 52131  1  0  0  0  0
 52132  1  0  0  0  0
 52133  1  0  0  0  0
 53134  1  0  0  0  0
 53135  1  0  0  0  0
 53136  1  0  0  0  0
 54 60  1  1  0  0  0
 54 66  1  0  0  0  0
 54130  1  0  0  0  0
 55 74  2  0  0  0  0
 55137  1  0  0  0  0
 56138  1  0  0  0  0
 56139  1  0  0  0  0
 56140  1  0  0  0  0
 57 69  1  0  0  0  0
 57 70  1  0  0  0  0
 57141  1  0  0  0  0
 58 63  1  0  0  0  0
 58142  1  0  0  0  0
 58143  1  0  0  0  0
 59 73  1  6  0  0  0
 59144  1  0  0  0  0
 60 65  1  0  0  0  0
 60145  1  0  0  0  0
 60146  1  0  0  0  0
 61 76  1  0  0  0  0
 61147  1  0  0  0  0
 61148  1  0  0  0  0
 63 77  1  0  0  0  0
 63 78  1  0  0  0  0
 63149  1  0  0  0  0
 65 80  1  0  0  0  0
 65 81  1  0  0  0  0
 65150  1  0  0  0  0
 68 71  1  0  0  0  0
 68152  1  0  0  0  0
 68153  1  0  0  0  0
 69155  1  0  0  0  0
 69156  1  0  0  0  0
 69157  1  0  0  0  0
 70158  1  0  0  0  0
 70159  1  0  0  0  0
 70160  1  0  0  0  0
 72 79  1  0  0  0  0
 72 84  1  1  0  0  0
 72161  1  0  0  0  0
 73162  1  0  0  0  0
 73163  1  0  0  0  0
 73164  1  0  0  0  0
 74 85  1  0  0  0  0
 74165  1  0  0  0  0
 75166  1  0  0  0  0
 75167  1  0  0  0  0
 75168  1  0  0  0  0
 76169  1  0  0  0  0
 76170  1  0  0  0  0
 76171  1  0  0  0  0
 77173  1  0  0  0  0
 77174  1  0  0  0  0
 77175  1  0  0  0  0
 78176  1  0  0  0  0
 78177  1  0  0  0  0
 78178  1  0  0  0  0
 80179  1  0  0  0  0
 80180  1  0  0  0  0
 80181  1  0  0  0  0
 81182  1  0  0  0  0
 81183  1  0  0  0  0
 81184  1  0  0  0  0
 82185  1  0  0  0  0
 82186  1  0  0  0  0
 82187  1  0  0  0  0
 83188  1  0  0  0  0
 83189  1  0  0  0  0
 83190  1  0  0  0  0
 84191  1  0  0  0  0
 84192  1  0  0  0  0
 84193  1  0  0  0  0
 85194  1  0  0  0  0
 85195  1  0  0  0  0
 85196  1  0  0  0  0
M  END
$$$$
12560
  -OEChem-01202405132D

118120  0     1  0  0  0  0  0999 V2000
    5.4641   -0.9472    0.0000 O   0  0  0  0  0  0  0  0  0  0  0  0
    7.1962   -0.9472    0.0000 O   0  0  0  0  0  0  0  0  0  0  0  0
    3.6322    0.8117    0.0000 O   0  0  0  0  0  0  0  0  0  0  0  0
    3.7320   -0.9472    0.0000 O   0  0  0  0  0  0  0  0  0  0  0  0
    8.9282   -0.9472    0.0000 O   0  0  0  0  0  0  0  0  0  0  0  0
    8.9282    2.0528    0.0000 O   0  0  0  0  0  0  0  0  0  0  0  0
    9.4282   -3.8132    0.0000 O   0  0  0  0  0  0  0  0  0  0  0  0
    5.4641   -2.9472    0.0000 O   0  0  0  0  0  0  0  0  0  0  0  0
   10.6603   -2.9472    0.0000 O   0  0  0  0  0  0  0  0  0  0  0  0
    8.3210    4.5188    0.0000 O   0  0  0  0  0  0  0  0  0  0  0  0
    7.8390    2.2868    0.0000 O   0  0  0  0  0  0  0  0  0  0  0  0
    4.5981    3.5528    0.0000 O   0  0  0  0  0  0  0  0  0  0  0  0
    7.1962    2.0528    0.0000 O   0  0  0  0  0  0  0  0  0  0  0  0
    3.7320   -3.9472    0.0000 N   0  0  0  0  0  0  0  0  0  0  0  0
    5.4641    0.0528    0.0000 C   0  0  2  0  0  0  0  0  0  0  0  0
    6.3301    0.5528    0.0000 C   0  0  2  0  0  0  0  0  0  0  0  0
    4.5981    0.5528    0.0000 C   0  0  1  0  0  0  0  0  0  0  0  0
    7.1962    0.0528    0.0000 C   0  0  1  0  0  0  0  0  0  0  0  0
    4.5981    1.5528    0.0000 C   0  0  0  0  0  0  0  0  0  0  0  0
    8.0622    0.5528    0.0000 C   0  0  2  0  0  0  0  0  0  0  0  0
    5.4641    2.0528    0.0000 C   0  0  2  0  0  0  0  0  0  0  0  0
    4.5981   -1.4472    0.0000 C   0  0  2  0  0  0  0  0  0  0  0  0
    8.0622   -1.4472    0.0000 C   0  0  2  0  0  0  0  0  0  0  0  0
    8.9282   -2.9472    0.0000 C   0  0  2  0  0  0  0  0  0  0  0  0
    6.3301    1.5528    0.0000 C   0  0  0  0  0  0  0  0  0  0  0  0
    4.5981   -2.4472    0.0000 C   0  0  1  0  0  0  0  0  0  0  0  0
    8.0622   -2.4472    0.0000 C   0  0  0  0  0  0  0  0  0  0  0  0
    3.7320   -2.9472    0.0000 C   0  0  2  0  0  0  0  0  0  0  0  0
    3.8910   -0.1543    0.0000 C   0  0  0  0  0  0  0  0  0  0  0  0
    9.7942   -2.4472    0.0000 C   0  0  2  0  0  0  0  0  0  0  0  0
    6.3301    3.5528    0.0000 C   0  0  2  0  0  0  0  0  0  0  0  0
    8.0622    3.5528    0.0000 C   0  0  1  0  0  0  0  0  0  0  0  0
    2.8660   -2.4472    0.0000 C   0  0  0  0  0  0  0  0  0  0  0  0
    9.7942   -1.4472    0.0000 C   0  0  2  0  0  0  0  0  0  0  0  0
    7.1962    3.0528    0.0000 C   0  0  2  0  0  0  0  0  0  0  0  0
    5.4641    3.0528    0.0000 C   0  0  0  0  0  0  0  0  0  0  0  0
    2.8660   -1.4472    0.0000 C   0  0  1  0  0  0  0  0  0  0  0  0
    8.9282    3.0528    0.0000 C   0  0  1  0  0  0  0  0  0  0  0  0
    8.0622    1.5528    0.0000 C   0  0  0  0  0  0  0  0  0  0  0  0
    8.9282    0.0528    0.0000 C   0  0  0  0  0  0  0  0  0  0  0  0
    5.4641    1.0528    0.0000 C   0  0  0  0  0  0  0  0  0  0  0  0
    8.4282   -3.8132    0.0000 C   0  0  0  0  0  0  0  0  0  0  0  0
    6.3301    4.5528    0.0000 C   0  0  0  0  0  0  0  0  0  0  0  0
    7.4886    4.3720    0.0000 C   0  0  0  0  0  0  0  0  0  0  0  0
    9.7942    3.5528    0.0000 C   0  0  0  0  0  0  0  0  0  0  0  0
   10.6603   -0.9472    0.0000 C   0  0  0  0  0  0  0  0  0  0  0  0
    2.0000   -0.9472    0.0000 C   0  0  0  0  0  0  0  0  0  0  0  0
    2.8660   -4.4472    0.0000 C   0  0  0  0  0  0  0  0  0  0  0  0
    4.5981   -4.4472    0.0000 C   0  0  0  0  0  0  0  0  0  0  0  0
   10.6603    3.0528    0.0000 C   0  0  0  0  0  0  0  0  0  0  0  0
    8.9282   -4.6792    0.0000 C   0  0  0  0  0  0  0  0  0  0  0  0
    6.0010   -0.2572    0.0000 H   0  0  0  0  0  0  0  0  0  0  0  0
    6.8671    0.8628    0.0000 H   0  0  0  0  0  0  0  0  0  0  0  0
    7.7331   -0.2572    0.0000 H   0  0  0  0  0  0  0  0  0  0  0  0
    4.3860    2.1354    0.0000 H   0  0  0  0  0  0  0  0  0  0  0  0
    3.9875    1.4452    0.0000 H   0  0  0  0  0  0  0  0  0  0  0  0
    8.5991    0.8628    0.0000 H   0  0  0  0  0  0  0  0  0  0  0  0
    6.0841    2.0528    0.0000 H   0  0  0  0  0  0  0  0  0  0  0  0
    4.5981   -0.8272    0.0000 H   0  0  0  0  0  0  0  0  0  0  0  0
    7.5252   -1.7572    0.0000 H   0  0  0  0  0  0  0  0  0  0  0  0
    6.9501    1.5528    0.0000 H   0  0  0  0  0  0  0  0  0  0  0  0
    6.3301    2.1728    0.0000 H   0  0  0  0  0  0  0  0  0  0  0  0
    5.7101    1.5528    0.0000 H   0  0  0  0  0  0  0  0  0  0  0  0
    4.5981   -3.0672    0.0000 H   0  0  0  0  0  0  0  0  0  0  0  0
    7.4516   -2.3395    0.0000 H   0  0  0  0  0  0  0  0  0  0  0  0
    7.8501   -3.0298    0.0000 H   0  0  0  0  0  0  0  0  0  0  0  0
    3.1951   -3.2572    0.0000 H   0  0  0  0  0  0  0  0  0  0  0  0
    3.4526    0.2841    0.0000 H   0  0  0  0  0  0  0  0  0  0  0  0
    3.4526   -0.5927    0.0000 H   0  0  0  0  0  0  0  0  0  0  0  0
    4.3294   -0.5927    0.0000 H   0  0  0  0  0  0  0  0  0  0  0  0
    9.7942   -3.0672    0.0000 H   0  0  0  0  0  0  0  0  0  0  0  0
    6.8671    3.8628    0.0000 H   0  0  0  0  0  0  0  0  0  0  0  0
    2.2554   -2.3395    0.0000 H   0  0  0  0  0  0  0  0  0  0  0  0
    2.6540   -3.0298    0.0000 H   0  0  0  0  0  0  0  0  0  0  0  0
    9.7942   -0.8272    0.0000 H   0  0  0  0  0  0  0  0  0  0  0  0
    6.7976    2.5779    0.0000 H   0  0  0  0  0  0  0  0  0  0  0  0
    2.8660   -0.8272    0.0000 H   0  0  0  0  0  0  0  0  0  0  0  0
    9.4651    2.7428    0.0000 H   0  0  0  0  0  0  0  0  0  0  0  0
    3.4717    1.4105    0.0000 H   0  0  0  0  0  0  0  0  0  0  0  0
    8.6182   -0.4841    0.0000 H   0  0  0  0  0  0  0  0  0  0  0  0
    9.4651   -0.2572    0.0000 H   0  0  0  0  0  0  0  0  0  0  0  0
    9.2382    0.5898    0.0000 H   0  0  0  0  0  0  0  0  0  0  0  0
    4.8441    1.0528    0.0000 H   0  0  0  0  0  0  0  0  0  0  0  0
    5.4641    0.4328    0.0000 H   0  0  0  0  0  0  0  0  0  0  0  0
    6.0841    1.0528    0.0000 H   0  0  0  0  0  0  0  0  0  0  0  0
    7.8913   -3.5032    0.0000 H   0  0  0  0  0  0  0  0  0  0  0  0
    8.1182   -4.3501    0.0000 H   0  0  0  0  0  0  0  0  0  0  0  0
    8.9651   -4.1232    0.0000 H   0  0  0  0  0  0  0  0  0  0  0  0
    6.9501    4.5528    0.0000 H   0  0  0  0  0  0  0  0  0  0  0  0
    6.3301    5.1728    0.0000 H   0  0  0  0  0  0  0  0  0  0  0  0
    5.7101    4.5528    0.0000 H   0  0  0  0  0  0  0  0  0  0  0  0
    7.9965    4.7276    0.0000 H   0  0  0  0  0  0  0  0  0  0  0  0
    7.1330    4.8799    0.0000 H   0  0  0  0  0  0  0  0  0  0  0  0
    6.9807    4.0164    0.0000 H   0  0  0  0  0  0  0  0  0  0  0  0
   10.1928    4.0278    0.0000 H   0  0  0  0  0  0  0  0  0  0  0  0
    9.3957    4.0278    0.0000 H   0  0  0  0  0  0  0  0  0  0  0  0
   10.9703   -1.4841    0.0000 H   0  0  0  0  0  0  0  0  0  0  0  0
   11.1972   -0.6372    0.0000 H   0  0  0  0  0  0  0  0  0  0  0  0
   10.3503   -0.4102    0.0000 H   0  0  0  0  0  0  0  0  0  0  0  0
    2.3100   -0.4102    0.0000 H   0  0  0  0  0  0  0  0  0  0  0  0
    1.4631   -0.6372    0.0000 H   0  0  0  0  0  0  0  0  0  0  0  0
    1.6900   -1.4841    0.0000 H   0  0  0  0  0  0  0  0  0  0  0  0
    6.0010   -2.6372    0.0000 H   0  0  0  0  0  0  0  0  0  0  0  0
   11.1972   -2.6372    0.0000 H   0  0  0  0  0  0  0  0  0  0  0  0
    8.9199    4.6792    0.0000 H   0  0  0  0  0  0  0  0  0  0  0  0
    8.3139    2.6853    0.0000 H   0  0  0  0  0  0  0  0  0  0  0  0
    2.5560   -3.9102    0.0000 H   0  0  0  0  0  0  0  0  0  0  0  0
    2.3291   -4.7572    0.0000 H   0  0  0  0  0  0  0  0  0  0  0  0
    3.1760   -4.9841    0.0000 H   0  0  0  0  0  0  0  0  0  0  0  0
    4.2881   -4.9841    0.0000 H   0  0  0  0  0  0  0  0  0  0  0  0
    5.1350   -4.7572    0.0000 H   0  0  0  0  0  0  0  0  0  0  0  0
    4.9081   -3.9102    0.0000 H   0  0  0  0  0  0  0  0  0  0  0  0
   10.3503    2.5159    0.0000 H   0  0  0  0  0  0  0  0  0  0  0  0
   11.1972    2.7428    0.0000 H   0  0  0  0  0  0  0  0  0  0  0  0
   10.9703    3.5898    0.0000 H   0  0  0  0  0  0  0  0  0  0  0  0
    8.3913   -4.3692    0.0000 H   0  0  0  0  0  0  0  0  0  0  0  0
    8.6182   -5.2162    0.0000 H   0  0  0  0  0  0  0  0  0  0  0  0
    9.4651   -4.9892    0.0000 H   0  0  0  0  0  0  0  0  0  0  0  0
 15  1  1  1  0  0  0
 22  1  1  1  0  0  0
 18  2  1  1  0  0  0
 23  2  1  6  0  0  0
 17  3  1  6  0  0  0
  3 79  1  0  0  0  0
  4 22  1  0  0  0  0
  4 37  1  0  0  0  0
  5 23  1  0  0  0  0
  5 34  1  0  0  0  0
  6 38  1  0  0  0  0
  6 39  1  0  0  0  0
 24  7  1  6  0  0  0
  7 51  1  0  0  0  0
 26  8  1  6  0  0  0
  8103  1  0  0  0  0
 30  9  1  6  0  0  0
  9104  1  0  0  0  0
 32 10  1  6  0  0  0
 10105  1  0  0  0  0
 35 11  1  6  0  0  0
 11106  1  0  0  0  0
 12 36  2  0  0  0  0
 13 39  2  0  0  0  0
 28 14  1  1  0  0  0
 14 48  1  0  0  0  0
 14 49  1  0  0  0  0
 15 16  1  0  0  0  0
 15 17  1  0  0  0  0
 15 52  1  0  0  0  0
 16 18  1  0  0  0  0
 16 25  1  1  0  0  0
 16 53  1  0  0  0  0
 17 19  1  0  0  0  0
 17 29  1  0  0  0  0
 18 20  1  0  0  0  0
 18 54  1  0  0  0  0
 19 21  1  0  0  0  0
 19 55  1  0  0  0  0
 19 56  1  0  0  0  0
 20 39  1  0  0  0  0
 20 40  1  6  0  0  0
 20 57  1  0  0  0  0
 21 36  1  0  0  0  0
 21 41  1  6  0  0  0
 21 58  1  0  0  0  0
 22 26  1  0  0  0  0
 22 59  1  0  0  0  0
 23 27  1  0  0  0  0
 23 60  1  0  0  0  0
 24 27  1  0  0  0  0
 24 30  1  0  0  0  0
 24 42  1  0  0  0  0
 25 61  1  0  0  0  0
 25 62  1  0  0  0  0
 25 63  1  0  0  0  0
 26 28  1  0  0  0  0
 26 64  1  0  0  0  0
 27 65  1  0  0  0  0
 27 66  1  0  0  0  0
 28 33  1  0  0  0  0
 28 67  1  0  0  0  0
 29 68  1  0  0  0  0
 29 69  1  0  0  0  0
 29 70  1  0  0  0  0
 30 34  1  0  0  0  0
 30 71  1  0  0  0  0
 31 35  1  0  0  0  0
 31 36  1  0  0  0  0
 31 43  1  6  0  0  0
 31 72  1  0  0  0  0
 32 35  1  0  0  0  0
 32 38  1  0  0  0  0
 32 44  1  0  0  0  0
 33 37  1  0  0  0  0
 33 73  1  0  0  0  0
 33 74  1  0  0  0  0
 34 46  1  1  0  0  0
 34 75  1  0  0  0  0
 35 76  1  0  0  0  0
 37 47  1  1  0  0  0
 37 77  1  0  0  0  0
 38 45  1  1  0  0  0
 38 78  1  0  0  0  0
 40 80  1  0  0  0  0
 40 81  1  0  0  0  0
 40 82  1  0  0  0  0
 41 83  1  0  0  0  0
 41 84  1  0  0  0  0
 41 85  1  0  0  0  0
 42 86  1  0  0  0  0
 42 87  1  0  0  0  0
 42 88  1  0  0  0  0
 43 89  1  0  0  0  0
 43 90  1  0  0  0  0
 43 91  1  0  0  0  0
 44 92  1  0  0  0  0
 44 93  1  0  0  0  0
 44 94  1  0  0  0  0
 45 50  1  0  0  0  0
 45 95  1  0  0  0  0
 45 96  1  0  0  0  0
 46 97  1  0  0  0  0
 46 98  1  0  0  0  0
 46 99  1  0  0  0  0
 47100  1  0  0  0  0
 47101  1  0  0  0  0
 47102  1  0  0  0  0
 48107  1  0  0  0  0
 48108  1  0  0  0  0
 48109  1  0  0  0  0
 49110  1  0  0  0  0
 49111  1  0  0  0  0
 49112  1  0  0  0  0
 50113  1  0  0  0  0
 50114  1  0  0  0  0
 50115  1  0  0  0  0
 51116  1  0  0  0  0
 51117  1  0  0  0  0
 51118  1  0  0  0  0
M  END
$$$$